# Packages (lines beginning "#" are comments)
 &PACKAGES
 useKPP         =.FALSE.,
 useDiagnostics =.TRUE.,
 usegmredi      =.TRUE.,
 useRBCS        =.TRUE.,
 usePTRACERS    =.FALSE.,
 useFLT         =.FASLE.,
 &
